[General]
network = load_balancer_omnet

sim-time-limit = 100s
*.source.interArrivalTime = exponential(1s)
*.server.serviceTime = exponential(1s)
repeat = 1
